A:8U1204
  --CCDC--030121    3D                              

 26 26  0  0  0  0  0  0  0  0999 V2000
   -7.9179   10.8508    0.1660 N      0
   -8.6319   13.0278   -0.7060 C      0
   -9.2579   13.4818   -1.8540 C      0
   -8.8969   14.6978   -2.4190 C      0
   -7.9149   15.4618   -1.8230 C      0
   -7.2929   15.0218   -0.6690 C      0
   -6.6699   17.5378   -1.7470 C      0
   -6.8839    8.9039    1.2480 C      0
   -8.0279    9.8529    1.0410 C      0
   -9.0649   11.6998   -0.1330 C      0
   -7.6459   13.8028   -0.1070 C      0
   -7.5849   16.6648   -2.3980 O      0
   -9.0699    9.7149    1.6840 O      0
   -7.0301   11.0214   -0.2955 H      0
   -6.0106    9.4572    1.5900 H      0
   -7.1589    8.1614    1.9957 H      0
   -6.6521    8.4043    0.3085 H      0
   -6.5238   15.6335   -0.1998 H      0
   -7.1524   13.4551    0.7994 H      0
   -5.7124   17.0339   -1.6240 H      0
   -6.5333   18.4349   -2.3490 H      0
   -7.0635   17.8129   -0.7696 H      0
  -10.0391   12.8811   -2.3174 H      0
   -9.3861   15.0463   -3.3274 H      0
   -9.6247   11.8753    0.7844 H      0
   -9.7023   11.1928   -0.8559 H      0
  1  9  1
  1 10  1
  2  3  4
  2 10  1
  2 11  4
  3  4  4
  4  5  4
  5  6  4
  5 12  1
  6 11  4
  7 12  1
  8  9  1
  9 13  2
  1 14  1
  8 15  1
  8 16  1
  8 17  1
  6 18  1
 11 19  1
  7 20  1
  7 21  1
  7 22  1
  3 23  1
  4 24  1
 10 25  1
 10 26  1
M  END
$$$$
